Circuit: * C:\Users\cydro\Documents\eagle\Headlights\spice\avago-asmbt.asc


Date: Sun Feb 21 13:39:36 2016
Total elapsed time: 0.314 seconds.

tnom = 27
temp = 27
method = trap
totiter = 1234
traniter = 0
tranpoints = 0
accept = 0
rejected = 0
matrix size = 6
fillins = 0
solver = Normal
Matrix Compiler1: 200 bytes object code size  0.2/0.2/[0.2]
Matrix Compiler2: off  [0.2]/0.4/0.2


